<?xml version="1.0" encoding="UTF-8"?>
<!-- generated on 2020-10-22 18:04:18.125339 by $Id$ v1_7_0+0660-6c09f092b4
  options: -n ../arterial-network.net.xml <doubleminus>flows 5 <doubleminus>jtrrouter
-->
<routes xmlns:xsi="http://www.w3.org/2001/XMLSchema-instance" xsi:noNamespaceSchemaLocation="http://sumo.dlr.de/xsd/routes_file.xsd">
    <flow id="0" begin="0" end="3600" from="10_1" vehsPerHour="483"/>
    <flow id="1" begin="0" end="3600" from="11_1" vehsPerHour="178"/>
    <flow id="2" begin="0" end="3600" from="29_1" vehsPerHour="297"/>
    <flow id="3" begin="0" end="3600" from="12_2" vehsPerHour="499"/>
    <flow id="4" begin="0" end="3600" from="28_2" vehsPerHour="508"/>
    <flow id="5" begin="0" end="3600" from="13_3" vehsPerHour="351"/>
    <flow id="6" begin="0" end="3600" from="27_3" vehsPerHour="352"/>
    <flow id="7" begin="0" end="3600" from="14_4" vehsPerHour="271"/>
    <flow id="8" begin="0" end="3600" from="26_4" vehsPerHour="163"/>
    <flow id="9" begin="0" end="3600" from="15_5" vehsPerHour="789"/>
    <flow id="10" begin="0" end="3600" from="25_5" vehsPerHour="1082"/>
    <flow id="11" begin="0" end="3600" from="16_6" vehsPerHour="230"/>
    <flow id="12" begin="0" end="3600" from="24_6" vehsPerHour="590"/>
    <flow id="13" begin="0" end="3600" from="17_7" vehsPerHour="642"/>
    <flow id="14" begin="0" end="3600" from="23_7" vehsPerHour="687"/>
    <flow id="15" begin="0" end="3600" from="18_8" vehsPerHour="151"/>
    <flow id="16" begin="0" end="3600" from="22_8" vehsPerHour="117"/>
    <flow id="17" begin="0" end="3600" from="19_9" vehsPerHour="479"/>
    <flow id="18" begin="0" end="3600" from="20_9" vehsPerHour="1197"/>
    <flow id="19" begin="0" end="3600" from="21_9" vehsPerHour="712"/>
</routes>
