<?xml version="1.0" encoding="UTF-8"?>

<!-- generated on ter 27 out 2020 22:24:40 by Eclipse SUMO netedit Version 1.7.0
<configuration xmlns:xsi="http://www.w3.org/2001/XMLSchema-instance" xsi:noNamespaceSchemaLocation="http://sumo.dlr.de/xsd/netconvertConfiguration.xsd">

    <input>
        <sumo-net-file value="/home/danielmitre/SUMO/arterial-network.net.xml"/>
    </input>

    <output>
        <output-file value="/home/danielmitre/SUMO/arterial-network.net.xml"/>
    </output>

    <processing>
        <geometry.min-radius.fix.railways value="false"/>
        <geometry.max-grade.fix value="false"/>
        <offset.disable-normalization value="true"/>
        <lefthand value="false"/>
    </processing>

    <junctions>
        <no-turnarounds value="true"/>
        <junctions.corner-detail value="5"/>
        <junctions.limit-turn-speed value="5.5"/>
        <rectangular-lane-cut value="false"/>
    </junctions>

    <pedestrian>
        <walkingareas value="false"/>
    </pedestrian>

    <report>
        <aggregate-warnings value="5"/>
    </report>

</configuration>
-->

<net version="1.6" junctionCornerDetail="5" limitTurnSpeed="5.50" xmlns:xsi="http://www.w3.org/2001/XMLSchema-instance" xsi:noNamespaceSchemaLocation="http://sumo.dlr.de/xsd/net_file.xsd">

    <location netOffset="0.00,0.00" convBoundary="-300.00,-300.00,5113.00,300.00" origBoundary="-10000000000.00,-10000000000.00,10000000000.00,10000000000.00" projParameter="!"/>

    <edge id=":1_0" function="internal">
        <lane id=":1_0_0" index="0" speed="6.51" length="9.03" shape="-11.20,16.80 -11.55,14.35 -12.60,12.60 -14.35,11.55 -16.80,11.20"/>
    </edge>
    <edge id=":1_1" function="internal">
        <lane id=":1_1_0" index="0" speed="13.89" length="33.60" shape="-8.00,16.80 -8.00,-16.80"/>
        <lane id=":1_1_1" index="1" speed="13.89" length="33.60" shape="-4.80,16.80 -4.80,-16.80"/>
    </edge>
    <edge id=":1_3" function="internal">
        <lane id=":1_3_0" index="0" speed="11.36" length="15.07" shape="-1.60,16.80 -0.45,8.75 3.00,3.00 3.20,2.88"/>
    </edge>
    <edge id=":1_16" function="internal">
        <lane id=":1_16_0" index="0" speed="11.36" length="14.60" shape="3.20,2.88 8.75,-0.45 16.80,-1.60"/>
    </edge>
    <edge id=":1_4" function="internal">
        <lane id=":1_4_0" index="0" speed="6.51" length="9.03" shape="16.80,11.20 14.35,11.55 12.60,12.60 11.55,14.35 11.20,16.80"/>
    </edge>
    <edge id=":1_5" function="internal">
        <lane id=":1_5_0" index="0" speed="13.89" length="33.60" shape="16.80,8.00 -16.80,8.00"/>
        <lane id=":1_5_1" index="1" speed="13.89" length="33.60" shape="16.80,4.80 -16.80,4.80"/>
    </edge>
    <edge id=":1_7" function="internal">
        <lane id=":1_7_0" index="0" speed="11.36" length="15.07" shape="16.80,1.60 8.75,0.45 3.00,-3.00 2.88,-3.20"/>
    </edge>
    <edge id=":1_17" function="internal">
        <lane id=":1_17_0" index="0" speed="11.36" length="14.60" shape="2.88,-3.20 -0.45,-8.75 -1.60,-16.80"/>
    </edge>
    <edge id=":1_8" function="internal">
        <lane id=":1_8_0" index="0" speed="6.51" length="9.03" shape="11.20,-16.80 11.55,-14.35 12.60,-12.60 14.35,-11.55 16.80,-11.20"/>
    </edge>
    <edge id=":1_9" function="internal">
        <lane id=":1_9_0" index="0" speed="13.89" length="33.60" shape="8.00,-16.80 8.00,16.80"/>
        <lane id=":1_9_1" index="1" speed="13.89" length="33.60" shape="4.80,-16.80 4.80,16.80"/>
    </edge>
    <edge id=":1_11" function="internal">
        <lane id=":1_11_0" index="0" speed="11.36" length="15.07" shape="1.60,-16.80 0.45,-8.75 -3.00,-3.00 -3.20,-2.88"/>
    </edge>
    <edge id=":1_18" function="internal">
        <lane id=":1_18_0" index="0" speed="11.36" length="14.60" shape="-3.20,-2.88 -8.75,0.45 -16.80,1.60"/>
    </edge>
    <edge id=":1_12" function="internal">
        <lane id=":1_12_0" index="0" speed="6.51" length="9.03" shape="-16.80,-11.20 -14.35,-11.55 -12.60,-12.60 -11.55,-14.35 -11.20,-16.80"/>
    </edge>
    <edge id=":1_13" function="internal">
        <lane id=":1_13_0" index="0" speed="13.89" length="33.60" shape="-16.80,-8.00 16.80,-8.00"/>
        <lane id=":1_13_1" index="1" speed="13.89" length="33.60" shape="-16.80,-4.80 16.80,-4.80"/>
    </edge>
    <edge id=":1_15" function="internal">
        <lane id=":1_15_0" index="0" speed="11.36" length="15.07" shape="-16.80,-1.60 -8.75,-0.45 -3.00,3.00 -2.88,3.20"/>
    </edge>
    <edge id=":1_19" function="internal">
        <lane id=":1_19_0" index="0" speed="11.36" length="14.60" shape="-2.88,3.20 0.45,8.75 1.60,16.80"/>
    </edge>
    <edge id=":2_0" function="internal">
        <lane id=":2_0_0" index="0" speed="6.51" length="9.03" shape="390.80,16.80 390.45,14.35 389.40,12.60 387.65,11.55 385.20,11.20"/>
    </edge>
    <edge id=":2_1" function="internal">
        <lane id=":2_1_0" index="0" speed="13.89" length="33.60" shape="394.00,16.80 394.00,-16.80"/>
        <lane id=":2_1_1" index="1" speed="13.89" length="33.60" shape="397.20,16.80 397.20,-16.80"/>
    </edge>
    <edge id=":2_3" function="internal">
        <lane id=":2_3_0" index="0" speed="11.36" length="15.07" shape="400.40,16.80 401.55,8.75 405.00,3.00 405.20,2.88"/>
    </edge>
    <edge id=":2_16" function="internal">
        <lane id=":2_16_0" index="0" speed="11.36" length="14.60" shape="405.20,2.88 410.75,-0.45 418.80,-1.60"/>
    </edge>
    <edge id=":2_4" function="internal">
        <lane id=":2_4_0" index="0" speed="6.51" length="9.03" shape="418.80,11.20 416.35,11.55 414.60,12.60 413.55,14.35 413.20,16.80"/>
    </edge>
    <edge id=":2_5" function="internal">
        <lane id=":2_5_0" index="0" speed="13.89" length="33.60" shape="418.80,8.00 385.20,8.00"/>
        <lane id=":2_5_1" index="1" speed="13.89" length="33.60" shape="418.80,4.80 385.20,4.80"/>
    </edge>
    <edge id=":2_7" function="internal">
        <lane id=":2_7_0" index="0" speed="11.36" length="15.07" shape="418.80,1.60 410.75,0.45 405.00,-3.00 404.88,-3.20"/>
    </edge>
    <edge id=":2_17" function="internal">
        <lane id=":2_17_0" index="0" speed="11.36" length="14.60" shape="404.88,-3.20 401.55,-8.75 400.40,-16.80"/>
    </edge>
    <edge id=":2_8" function="internal">
        <lane id=":2_8_0" index="0" speed="6.51" length="9.03" shape="413.20,-16.80 413.55,-14.35 414.60,-12.60 416.35,-11.55 418.80,-11.20"/>
    </edge>
    <edge id=":2_9" function="internal">
        <lane id=":2_9_0" index="0" speed="13.89" length="33.60" shape="410.00,-16.80 410.00,16.80"/>
        <lane id=":2_9_1" index="1" speed="13.89" length="33.60" shape="406.80,-16.80 406.80,16.80"/>
    </edge>
    <edge id=":2_11" function="internal">
        <lane id=":2_11_0" index="0" speed="11.36" length="15.07" shape="403.60,-16.80 402.45,-8.75 399.00,-3.00 398.80,-2.88"/>
    </edge>
    <edge id=":2_18" function="internal">
        <lane id=":2_18_0" index="0" speed="11.36" length="14.60" shape="398.80,-2.88 393.25,0.45 385.20,1.60"/>
    </edge>
    <edge id=":2_12" function="internal">
        <lane id=":2_12_0" index="0" speed="6.51" length="9.03" shape="385.20,-11.20 387.65,-11.55 389.40,-12.60 390.45,-14.35 390.80,-16.80"/>
    </edge>
    <edge id=":2_13" function="internal">
        <lane id=":2_13_0" index="0" speed="13.89" length="33.60" shape="385.20,-8.00 418.80,-8.00"/>
        <lane id=":2_13_1" index="1" speed="13.89" length="33.60" shape="385.20,-4.80 418.80,-4.80"/>
    </edge>
    <edge id=":2_15" function="internal">
        <lane id=":2_15_0" index="0" speed="11.36" length="15.07" shape="385.20,-1.60 393.25,-0.45 399.00,3.00 399.12,3.20"/>
    </edge>
    <edge id=":2_19" function="internal">
        <lane id=":2_19_0" index="0" speed="11.36" length="14.60" shape="399.12,3.20 402.45,8.75 403.60,16.80"/>
    </edge>
    <edge id=":3_0" function="internal">
        <lane id=":3_0_0" index="0" speed="6.51" length="9.03" shape="1094.80,16.80 1094.45,14.35 1093.40,12.60 1091.65,11.55 1089.20,11.20"/>
    </edge>
    <edge id=":3_1" function="internal">
        <lane id=":3_1_0" index="0" speed="13.89" length="33.60" shape="1098.00,16.80 1098.00,-16.80"/>
        <lane id=":3_1_1" index="1" speed="13.89" length="33.60" shape="1101.20,16.80 1101.20,-16.80"/>
    </edge>
    <edge id=":3_3" function="internal">
        <lane id=":3_3_0" index="0" speed="11.36" length="15.07" shape="1104.40,16.80 1105.55,8.75 1109.00,3.00 1109.20,2.88"/>
    </edge>
    <edge id=":3_16" function="internal">
        <lane id=":3_16_0" index="0" speed="11.36" length="14.60" shape="1109.20,2.88 1114.75,-0.45 1122.80,-1.60"/>
    </edge>
    <edge id=":3_4" function="internal">
        <lane id=":3_4_0" index="0" speed="6.51" length="9.03" shape="1122.80,11.20 1120.35,11.55 1118.60,12.60 1117.55,14.35 1117.20,16.80"/>
    </edge>
    <edge id=":3_5" function="internal">
        <lane id=":3_5_0" index="0" speed="13.89" length="33.60" shape="1122.80,8.00 1089.20,8.00"/>
        <lane id=":3_5_1" index="1" speed="13.89" length="33.60" shape="1122.80,4.80 1089.20,4.80"/>
    </edge>
    <edge id=":3_7" function="internal">
        <lane id=":3_7_0" index="0" speed="11.36" length="15.07" shape="1122.80,1.60 1114.75,0.45 1109.00,-3.00 1108.88,-3.20"/>
    </edge>
    <edge id=":3_17" function="internal">
        <lane id=":3_17_0" index="0" speed="11.36" length="14.60" shape="1108.88,-3.20 1105.55,-8.75 1104.40,-16.80"/>
    </edge>
    <edge id=":3_8" function="internal">
        <lane id=":3_8_0" index="0" speed="6.51" length="9.03" shape="1117.20,-16.80 1117.55,-14.35 1118.60,-12.60 1120.35,-11.55 1122.80,-11.20"/>
    </edge>
    <edge id=":3_9" function="internal">
        <lane id=":3_9_0" index="0" speed="13.89" length="33.60" shape="1114.00,-16.80 1114.00,16.80"/>
        <lane id=":3_9_1" index="1" speed="13.89" length="33.60" shape="1110.80,-16.80 1110.80,16.80"/>
    </edge>
    <edge id=":3_11" function="internal">
        <lane id=":3_11_0" index="0" speed="11.36" length="15.07" shape="1107.60,-16.80 1106.45,-8.75 1103.00,-3.00 1102.80,-2.88"/>
    </edge>
    <edge id=":3_18" function="internal">
        <lane id=":3_18_0" index="0" speed="11.36" length="14.60" shape="1102.80,-2.88 1097.25,0.45 1089.20,1.60"/>
    </edge>
    <edge id=":3_12" function="internal">
        <lane id=":3_12_0" index="0" speed="6.51" length="9.03" shape="1089.20,-11.20 1091.65,-11.55 1093.40,-12.60 1094.45,-14.35 1094.80,-16.80"/>
    </edge>
    <edge id=":3_13" function="internal">
        <lane id=":3_13_0" index="0" speed="13.89" length="33.60" shape="1089.20,-8.00 1122.80,-8.00"/>
        <lane id=":3_13_1" index="1" speed="13.89" length="33.60" shape="1089.20,-4.80 1122.80,-4.80"/>
    </edge>
    <edge id=":3_15" function="internal">
        <lane id=":3_15_0" index="0" speed="11.36" length="15.07" shape="1089.20,-1.60 1097.25,-0.45 1103.00,3.00 1103.12,3.20"/>
    </edge>
    <edge id=":3_19" function="internal">
        <lane id=":3_19_0" index="0" speed="11.36" length="14.60" shape="1103.12,3.20 1106.45,8.75 1107.60,16.80"/>
    </edge>
    <edge id=":4_0" function="internal">
        <lane id=":4_0_0" index="0" speed="6.51" length="9.03" shape="1559.80,16.80 1559.45,14.35 1558.40,12.60 1556.65,11.55 1554.20,11.20"/>
    </edge>
    <edge id=":4_1" function="internal">
        <lane id=":4_1_0" index="0" speed="13.89" length="33.60" shape="1563.00,16.80 1563.00,-16.80"/>
        <lane id=":4_1_1" index="1" speed="13.89" length="33.60" shape="1566.20,16.80 1566.20,-16.80"/>
    </edge>
    <edge id=":4_3" function="internal">
        <lane id=":4_3_0" index="0" speed="11.36" length="15.07" shape="1569.40,16.80 1570.55,8.75 1574.00,3.00 1574.20,2.88"/>
    </edge>
    <edge id=":4_16" function="internal">
        <lane id=":4_16_0" index="0" speed="11.36" length="14.60" shape="1574.20,2.88 1579.75,-0.45 1587.80,-1.60"/>
    </edge>
    <edge id=":4_4" function="internal">
        <lane id=":4_4_0" index="0" speed="6.51" length="9.03" shape="1587.80,11.20 1585.35,11.55 1583.60,12.60 1582.55,14.35 1582.20,16.80"/>
    </edge>
    <edge id=":4_5" function="internal">
        <lane id=":4_5_0" index="0" speed="13.89" length="33.60" shape="1587.80,8.00 1554.20,8.00"/>
        <lane id=":4_5_1" index="1" speed="13.89" length="33.60" shape="1587.80,4.80 1554.20,4.80"/>
    </edge>
    <edge id=":4_7" function="internal">
        <lane id=":4_7_0" index="0" speed="11.36" length="15.07" shape="1587.80,1.60 1579.75,0.45 1574.00,-3.00 1573.88,-3.20"/>
    </edge>
    <edge id=":4_17" function="internal">
        <lane id=":4_17_0" index="0" speed="11.36" length="14.60" shape="1573.88,-3.20 1570.55,-8.75 1569.40,-16.80"/>
    </edge>
    <edge id=":4_8" function="internal">
        <lane id=":4_8_0" index="0" speed="6.51" length="9.03" shape="1582.20,-16.80 1582.55,-14.35 1583.60,-12.60 1585.35,-11.55 1587.80,-11.20"/>
    </edge>
    <edge id=":4_9" function="internal">
        <lane id=":4_9_0" index="0" speed="13.89" length="33.60" shape="1579.00,-16.80 1579.00,16.80"/>
        <lane id=":4_9_1" index="1" speed="13.89" length="33.60" shape="1575.80,-16.80 1575.80,16.80"/>
    </edge>
    <edge id=":4_11" function="internal">
        <lane id=":4_11_0" index="0" speed="11.36" length="15.07" shape="1572.60,-16.80 1571.45,-8.75 1568.00,-3.00 1567.80,-2.88"/>
    </edge>
    <edge id=":4_18" function="internal">
        <lane id=":4_18_0" index="0" speed="11.36" length="14.60" shape="1567.80,-2.88 1562.25,0.45 1554.20,1.60"/>
    </edge>
    <edge id=":4_12" function="internal">
        <lane id=":4_12_0" index="0" speed="6.51" length="9.03" shape="1554.20,-11.20 1556.65,-11.55 1558.40,-12.60 1559.45,-14.35 1559.80,-16.80"/>
    </edge>
    <edge id=":4_13" function="internal">
        <lane id=":4_13_0" index="0" speed="13.89" length="33.60" shape="1554.20,-8.00 1587.80,-8.00"/>
        <lane id=":4_13_1" index="1" speed="13.89" length="33.60" shape="1554.20,-4.80 1587.80,-4.80"/>
    </edge>
    <edge id=":4_15" function="internal">
        <lane id=":4_15_0" index="0" speed="11.36" length="15.07" shape="1554.20,-1.60 1562.25,-0.45 1568.00,3.00 1568.12,3.20"/>
    </edge>
    <edge id=":4_19" function="internal">
        <lane id=":4_19_0" index="0" speed="11.36" length="14.60" shape="1568.12,3.20 1571.45,8.75 1572.60,16.80"/>
    </edge>
    <edge id=":5_0" function="internal">
        <lane id=":5_0_0" index="0" speed="6.51" length="9.03" shape="2006.80,16.80 2006.45,14.35 2005.40,12.60 2003.65,11.55 2001.20,11.20"/>
    </edge>
    <edge id=":5_1" function="internal">
        <lane id=":5_1_0" index="0" speed="13.89" length="33.60" shape="2010.00,16.80 2010.00,-16.80"/>
        <lane id=":5_1_1" index="1" speed="13.89" length="33.60" shape="2013.20,16.80 2013.20,-16.80"/>
    </edge>
    <edge id=":5_3" function="internal">
        <lane id=":5_3_0" index="0" speed="11.36" length="15.07" shape="2016.40,16.80 2017.55,8.75 2021.00,3.00 2021.20,2.88"/>
    </edge>
    <edge id=":5_16" function="internal">
        <lane id=":5_16_0" index="0" speed="11.36" length="14.60" shape="2021.20,2.88 2026.75,-0.45 2034.80,-1.60"/>
    </edge>
    <edge id=":5_4" function="internal">
        <lane id=":5_4_0" index="0" speed="6.51" length="9.03" shape="2034.80,11.20 2032.35,11.55 2030.60,12.60 2029.55,14.35 2029.20,16.80"/>
    </edge>
    <edge id=":5_5" function="internal">
        <lane id=":5_5_0" index="0" speed="13.89" length="33.60" shape="2034.80,8.00 2001.20,8.00"/>
        <lane id=":5_5_1" index="1" speed="13.89" length="33.60" shape="2034.80,4.80 2001.20,4.80"/>
    </edge>
    <edge id=":5_7" function="internal">
        <lane id=":5_7_0" index="0" speed="11.36" length="15.07" shape="2034.80,1.60 2026.75,0.45 2021.00,-3.00 2020.88,-3.20"/>
    </edge>
    <edge id=":5_17" function="internal">
        <lane id=":5_17_0" index="0" speed="11.36" length="14.60" shape="2020.88,-3.20 2017.55,-8.75 2016.40,-16.80"/>
    </edge>
    <edge id=":5_8" function="internal">
        <lane id=":5_8_0" index="0" speed="6.51" length="9.03" shape="2029.20,-16.80 2029.55,-14.35 2030.60,-12.60 2032.35,-11.55 2034.80,-11.20"/>
    </edge>
    <edge id=":5_9" function="internal">
        <lane id=":5_9_0" index="0" speed="13.89" length="33.60" shape="2026.00,-16.80 2026.00,16.80"/>
        <lane id=":5_9_1" index="1" speed="13.89" length="33.60" shape="2022.80,-16.80 2022.80,16.80"/>
    </edge>
    <edge id=":5_11" function="internal">
        <lane id=":5_11_0" index="0" speed="11.36" length="15.07" shape="2019.60,-16.80 2018.45,-8.75 2015.00,-3.00 2014.80,-2.88"/>
    </edge>
    <edge id=":5_18" function="internal">
        <lane id=":5_18_0" index="0" speed="11.36" length="14.60" shape="2014.80,-2.88 2009.25,0.45 2001.20,1.60"/>
    </edge>
    <edge id=":5_12" function="internal">
        <lane id=":5_12_0" index="0" speed="6.51" length="9.03" shape="2001.20,-11.20 2003.65,-11.55 2005.40,-12.60 2006.45,-14.35 2006.80,-16.80"/>
    </edge>
    <edge id=":5_13" function="internal">
        <lane id=":5_13_0" index="0" speed="13.89" length="33.60" shape="2001.20,-8.00 2034.80,-8.00"/>
        <lane id=":5_13_1" index="1" speed="13.89" length="33.60" shape="2001.20,-4.80 2034.80,-4.80"/>
    </edge>
    <edge id=":5_15" function="internal">
        <lane id=":5_15_0" index="0" speed="11.36" length="15.07" shape="2001.20,-1.60 2009.25,-0.45 2015.00,3.00 2015.12,3.20"/>
    </edge>
    <edge id=":5_19" function="internal">
        <lane id=":5_19_0" index="0" speed="11.36" length="14.60" shape="2015.12,3.20 2018.45,8.75 2019.60,16.80"/>
    </edge>
    <edge id=":6_0" function="internal">
        <lane id=":6_0_0" index="0" speed="6.51" length="9.03" shape="2828.80,16.80 2828.45,14.35 2827.40,12.60 2825.65,11.55 2823.20,11.20"/>
    </edge>
    <edge id=":6_1" function="internal">
        <lane id=":6_1_0" index="0" speed="13.89" length="33.60" shape="2832.00,16.80 2832.00,-16.80"/>
        <lane id=":6_1_1" index="1" speed="13.89" length="33.60" shape="2835.20,16.80 2835.20,-16.80"/>
    </edge>
    <edge id=":6_3" function="internal">
        <lane id=":6_3_0" index="0" speed="11.36" length="15.07" shape="2838.40,16.80 2839.55,8.75 2843.00,3.00 2843.20,2.88"/>
    </edge>
    <edge id=":6_16" function="internal">
        <lane id=":6_16_0" index="0" speed="11.36" length="14.60" shape="2843.20,2.88 2848.75,-0.45 2856.80,-1.60"/>
    </edge>
    <edge id=":6_4" function="internal">
        <lane id=":6_4_0" index="0" speed="6.51" length="9.03" shape="2856.80,11.20 2854.35,11.55 2852.60,12.60 2851.55,14.35 2851.20,16.80"/>
    </edge>
    <edge id=":6_5" function="internal">
        <lane id=":6_5_0" index="0" speed="13.89" length="33.60" shape="2856.80,8.00 2823.20,8.00"/>
        <lane id=":6_5_1" index="1" speed="13.89" length="33.60" shape="2856.80,4.80 2823.20,4.80"/>
    </edge>
    <edge id=":6_7" function="internal">
        <lane id=":6_7_0" index="0" speed="11.36" length="15.07" shape="2856.80,1.60 2848.75,0.45 2843.00,-3.00 2842.88,-3.20"/>
    </edge>
    <edge id=":6_17" function="internal">
        <lane id=":6_17_0" index="0" speed="11.36" length="14.60" shape="2842.88,-3.20 2839.55,-8.75 2838.40,-16.80"/>
    </edge>
    <edge id=":6_8" function="internal">
        <lane id=":6_8_0" index="0" speed="6.51" length="9.03" shape="2851.20,-16.80 2851.55,-14.35 2852.60,-12.60 2854.35,-11.55 2856.80,-11.20"/>
    </edge>
    <edge id=":6_9" function="internal">
        <lane id=":6_9_0" index="0" speed="13.89" length="33.60" shape="2848.00,-16.80 2848.00,16.80"/>
        <lane id=":6_9_1" index="1" speed="13.89" length="33.60" shape="2844.80,-16.80 2844.80,16.80"/>
    </edge>
    <edge id=":6_11" function="internal">
        <lane id=":6_11_0" index="0" speed="11.36" length="15.07" shape="2841.60,-16.80 2840.45,-8.75 2837.00,-3.00 2836.80,-2.88"/>
    </edge>
    <edge id=":6_18" function="internal">
        <lane id=":6_18_0" index="0" speed="11.36" length="14.60" shape="2836.80,-2.88 2831.25,0.45 2823.20,1.60"/>
    </edge>
    <edge id=":6_12" function="internal">
        <lane id=":6_12_0" index="0" speed="6.51" length="9.03" shape="2823.20,-11.20 2825.65,-11.55 2827.40,-12.60 2828.45,-14.35 2828.80,-16.80"/>
    </edge>
    <edge id=":6_13" function="internal">
        <lane id=":6_13_0" index="0" speed="13.89" length="33.60" shape="2823.20,-8.00 2856.80,-8.00"/>
        <lane id=":6_13_1" index="1" speed="13.89" length="33.60" shape="2823.20,-4.80 2856.80,-4.80"/>
    </edge>
    <edge id=":6_15" function="internal">
        <lane id=":6_15_0" index="0" speed="11.36" length="15.07" shape="2823.20,-1.60 2831.25,-0.45 2837.00,3.00 2837.12,3.20"/>
    </edge>
    <edge id=":6_19" function="internal">
        <lane id=":6_19_0" index="0" speed="11.36" length="14.60" shape="2837.12,3.20 2840.45,8.75 2841.60,16.80"/>
    </edge>
    <edge id=":7_0" function="internal">
        <lane id=":7_0_0" index="0" speed="6.51" length="9.03" shape="3596.80,16.80 3596.45,14.35 3595.40,12.60 3593.65,11.55 3591.20,11.20"/>
    </edge>
    <edge id=":7_1" function="internal">
        <lane id=":7_1_0" index="0" speed="13.89" length="33.60" shape="3600.00,16.80 3600.00,-16.80"/>
        <lane id=":7_1_1" index="1" speed="13.89" length="33.60" shape="3603.20,16.80 3603.20,-16.80"/>
    </edge>
    <edge id=":7_3" function="internal">
        <lane id=":7_3_0" index="0" speed="11.36" length="15.07" shape="3606.40,16.80 3607.55,8.75 3611.00,3.00 3611.20,2.88"/>
    </edge>
    <edge id=":7_16" function="internal">
        <lane id=":7_16_0" index="0" speed="11.36" length="14.60" shape="3611.20,2.88 3616.75,-0.45 3624.80,-1.60"/>
    </edge>
    <edge id=":7_4" function="internal">
        <lane id=":7_4_0" index="0" speed="6.51" length="9.03" shape="3624.80,11.20 3622.35,11.55 3620.60,12.60 3619.55,14.35 3619.20,16.80"/>
    </edge>
    <edge id=":7_5" function="internal">
        <lane id=":7_5_0" index="0" speed="13.89" length="33.60" shape="3624.80,8.00 3591.20,8.00"/>
        <lane id=":7_5_1" index="1" speed="13.89" length="33.60" shape="3624.80,4.80 3591.20,4.80"/>
    </edge>
    <edge id=":7_7" function="internal">
        <lane id=":7_7_0" index="0" speed="11.36" length="15.07" shape="3624.80,1.60 3616.75,0.45 3611.00,-3.00 3610.88,-3.20"/>
    </edge>
    <edge id=":7_17" function="internal">
        <lane id=":7_17_0" index="0" speed="11.36" length="14.60" shape="3610.88,-3.20 3607.55,-8.75 3606.40,-16.80"/>
    </edge>
    <edge id=":7_8" function="internal">
        <lane id=":7_8_0" index="0" speed="6.51" length="9.03" shape="3619.20,-16.80 3619.55,-14.35 3620.60,-12.60 3622.35,-11.55 3624.80,-11.20"/>
    </edge>
    <edge id=":7_9" function="internal">
        <lane id=":7_9_0" index="0" speed="13.89" length="33.60" shape="3616.00,-16.80 3616.00,16.80"/>
        <lane id=":7_9_1" index="1" speed="13.89" length="33.60" shape="3612.80,-16.80 3612.80,16.80"/>
    </edge>
    <edge id=":7_11" function="internal">
        <lane id=":7_11_0" index="0" speed="11.36" length="15.07" shape="3609.60,-16.80 3608.45,-8.75 3605.00,-3.00 3604.80,-2.88"/>
    </edge>
    <edge id=":7_18" function="internal">
        <lane id=":7_18_0" index="0" speed="11.36" length="14.60" shape="3604.80,-2.88 3599.25,0.45 3591.20,1.60"/>
    </edge>
    <edge id=":7_12" function="internal">
        <lane id=":7_12_0" index="0" speed="6.51" length="9.03" shape="3591.20,-11.20 3593.65,-11.55 3595.40,-12.60 3596.45,-14.35 3596.80,-16.80"/>
    </edge>
    <edge id=":7_13" function="internal">
        <lane id=":7_13_0" index="0" speed="13.89" length="33.60" shape="3591.20,-8.00 3624.80,-8.00"/>
        <lane id=":7_13_1" index="1" speed="13.89" length="33.60" shape="3591.20,-4.80 3624.80,-4.80"/>
    </edge>
    <edge id=":7_15" function="internal">
        <lane id=":7_15_0" index="0" speed="11.36" length="15.07" shape="3591.20,-1.60 3599.25,-0.45 3605.00,3.00 3605.12,3.20"/>
    </edge>
    <edge id=":7_19" function="internal">
        <lane id=":7_19_0" index="0" speed="11.36" length="14.60" shape="3605.12,3.20 3608.45,8.75 3609.60,16.80"/>
    </edge>
    <edge id=":8_0" function="internal">
        <lane id=":8_0_0" index="0" speed="6.51" length="9.03" shape="4394.80,16.80 4394.45,14.35 4393.40,12.60 4391.65,11.55 4389.20,11.20"/>
    </edge>
    <edge id=":8_1" function="internal">
        <lane id=":8_1_0" index="0" speed="13.89" length="33.60" shape="4398.00,16.80 4398.00,-16.80"/>
        <lane id=":8_1_1" index="1" speed="13.89" length="33.60" shape="4401.20,16.80 4401.20,-16.80"/>
    </edge>
    <edge id=":8_3" function="internal">
        <lane id=":8_3_0" index="0" speed="11.36" length="15.07" shape="4404.40,16.80 4405.55,8.75 4409.00,3.00 4409.20,2.88"/>
    </edge>
    <edge id=":8_16" function="internal">
        <lane id=":8_16_0" index="0" speed="11.36" length="14.60" shape="4409.20,2.88 4414.75,-0.45 4422.80,-1.60"/>
    </edge>
    <edge id=":8_4" function="internal">
        <lane id=":8_4_0" index="0" speed="6.51" length="9.03" shape="4422.80,11.20 4420.35,11.55 4418.60,12.60 4417.55,14.35 4417.20,16.80"/>
    </edge>
    <edge id=":8_5" function="internal">
        <lane id=":8_5_0" index="0" speed="13.89" length="33.60" shape="4422.80,8.00 4389.20,8.00"/>
        <lane id=":8_5_1" index="1" speed="13.89" length="33.60" shape="4422.80,4.80 4389.20,4.80"/>
    </edge>
    <edge id=":8_7" function="internal">
        <lane id=":8_7_0" index="0" speed="11.36" length="15.07" shape="4422.80,1.60 4414.75,0.45 4409.00,-3.00 4408.88,-3.20"/>
    </edge>
    <edge id=":8_17" function="internal">
        <lane id=":8_17_0" index="0" speed="11.36" length="14.60" shape="4408.88,-3.20 4405.55,-8.75 4404.40,-16.80"/>
    </edge>
    <edge id=":8_8" function="internal">
        <lane id=":8_8_0" index="0" speed="6.51" length="9.03" shape="4417.20,-16.80 4417.55,-14.35 4418.60,-12.60 4420.35,-11.55 4422.80,-11.20"/>
    </edge>
    <edge id=":8_9" function="internal">
        <lane id=":8_9_0" index="0" speed="13.89" length="33.60" shape="4414.00,-16.80 4414.00,16.80"/>
        <lane id=":8_9_1" index="1" speed="13.89" length="33.60" shape="4410.80,-16.80 4410.80,16.80"/>
    </edge>
    <edge id=":8_11" function="internal">
        <lane id=":8_11_0" index="0" speed="11.36" length="15.07" shape="4407.60,-16.80 4406.45,-8.75 4403.00,-3.00 4402.80,-2.88"/>
    </edge>
    <edge id=":8_18" function="internal">
        <lane id=":8_18_0" index="0" speed="11.36" length="14.60" shape="4402.80,-2.88 4397.25,0.45 4389.20,1.60"/>
    </edge>
    <edge id=":8_12" function="internal">
        <lane id=":8_12_0" index="0" speed="6.51" length="9.03" shape="4389.20,-11.20 4391.65,-11.55 4393.40,-12.60 4394.45,-14.35 4394.80,-16.80"/>
    </edge>
    <edge id=":8_13" function="internal">
        <lane id=":8_13_0" index="0" speed="13.89" length="33.60" shape="4389.20,-8.00 4422.80,-8.00"/>
        <lane id=":8_13_1" index="1" speed="13.89" length="33.60" shape="4389.20,-4.80 4422.80,-4.80"/>
    </edge>
    <edge id=":8_15" function="internal">
        <lane id=":8_15_0" index="0" speed="11.36" length="15.07" shape="4389.20,-1.60 4397.25,-0.45 4403.00,3.00 4403.12,3.20"/>
    </edge>
    <edge id=":8_19" function="internal">
        <lane id=":8_19_0" index="0" speed="11.36" length="14.60" shape="4403.12,3.20 4406.45,8.75 4407.60,16.80"/>
    </edge>
    <edge id=":9_0" function="internal">
        <lane id=":9_0_0" index="0" speed="6.51" length="9.03" shape="4801.80,16.80 4801.45,14.35 4800.40,12.60 4798.65,11.55 4796.20,11.20"/>
    </edge>
    <edge id=":9_1" function="internal">
        <lane id=":9_1_0" index="0" speed="13.89" length="33.60" shape="4805.00,16.80 4805.00,-16.80"/>
        <lane id=":9_1_1" index="1" speed="13.89" length="33.60" shape="4808.20,16.80 4808.20,-16.80"/>
    </edge>
    <edge id=":9_3" function="internal">
        <lane id=":9_3_0" index="0" speed="11.36" length="15.07" shape="4811.40,16.80 4812.55,8.75 4816.00,3.00 4816.20,2.88"/>
    </edge>
    <edge id=":9_16" function="internal">
        <lane id=":9_16_0" index="0" speed="11.36" length="14.60" shape="4816.20,2.88 4821.75,-0.45 4829.80,-1.60"/>
    </edge>
    <edge id=":9_4" function="internal">
        <lane id=":9_4_0" index="0" speed="6.51" length="9.03" shape="4829.80,11.20 4827.35,11.55 4825.60,12.60 4824.55,14.35 4824.20,16.80"/>
    </edge>
    <edge id=":9_5" function="internal">
        <lane id=":9_5_0" index="0" speed="13.89" length="33.60" shape="4829.80,8.00 4796.20,8.00"/>
        <lane id=":9_5_1" index="1" speed="13.89" length="33.60" shape="4829.80,4.80 4796.20,4.80"/>
    </edge>
    <edge id=":9_7" function="internal">
        <lane id=":9_7_0" index="0" speed="11.36" length="15.07" shape="4829.80,1.60 4821.75,0.45 4816.00,-3.00 4815.88,-3.20"/>
    </edge>
    <edge id=":9_17" function="internal">
        <lane id=":9_17_0" index="0" speed="11.36" length="14.60" shape="4815.88,-3.20 4812.55,-8.75 4811.40,-16.80"/>
    </edge>
    <edge id=":9_8" function="internal">
        <lane id=":9_8_0" index="0" speed="6.51" length="9.03" shape="4824.20,-16.80 4824.55,-14.35 4825.60,-12.60 4827.35,-11.55 4829.80,-11.20"/>
    </edge>
    <edge id=":9_9" function="internal">
        <lane id=":9_9_0" index="0" speed="13.89" length="33.60" shape="4821.00,-16.80 4821.00,16.80"/>
        <lane id=":9_9_1" index="1" speed="13.89" length="33.60" shape="4817.80,-16.80 4817.80,16.80"/>
    </edge>
    <edge id=":9_11" function="internal">
        <lane id=":9_11_0" index="0" speed="11.36" length="15.07" shape="4814.60,-16.80 4813.45,-8.75 4810.00,-3.00 4809.80,-2.88"/>
    </edge>
    <edge id=":9_18" function="internal">
        <lane id=":9_18_0" index="0" speed="11.36" length="14.60" shape="4809.80,-2.88 4804.25,0.45 4796.20,1.60"/>
    </edge>
    <edge id=":9_12" function="internal">
        <lane id=":9_12_0" index="0" speed="6.51" length="9.03" shape="4796.20,-11.20 4798.65,-11.55 4800.40,-12.60 4801.45,-14.35 4801.80,-16.80"/>
    </edge>
    <edge id=":9_13" function="internal">