<?xml version="1.0" encoding="UTF-8"?>

<!-- generated on ter 27 out 2020 22:24:59 by Eclipse SUMO netedit Version 1.7.0
<configuration xmlns:xsi="http://www.w3.org/2001/XMLSchema-instance" xsi:noNamespaceSchemaLocation="http://sumo.dlr.de/xsd/netconvertConfiguration.xsd">

    <input>
        <sumo-net-file value="/home/danielmitre/SUMO/arterial-network.net.xml"/>
    </input>

    <output>
        <output-file value="/home/danielmitre/SUMO/arterial-network.net.xml"/>
    </output>

    <processing>
        <geometry.min-radius.fix.railways value="false"/>
        <geometry.max-grade.fix value="false"/>
        <offset.disable-normalization value="true"/>
        <lefthand value="false"/>
    </processing>

    <junctions>
        <no-turnarounds value="true"/>
        <junctions.corner-detail value="5"/>
        <junctions.limit-turn-speed value="5.5"/>
        <rectangular-lane-cut value="false"/>
    </junctions>

    <pedestrian>
        <walkingareas value="false"/>
    </pedestrian>

    <netedit>
        <route-files value="/home/danielmitre/SUMO/arterial-network-turn_routes.rou.xml"/>
    </netedit>

    <report>
        <aggregate-warnings value="5"/>
    </report>

</configuration>
-->

<routes xmlns:xsi="http://www.w3.org/2001/XMLSchema-instance" xsi:noNamespaceSchemaLocation="http://sumo.dlr.de/xsd/routes_file.xsd">
    <vehicle id="0.0" depart="0.00">
        <route edges="10_1 1_2 gneE2 3_27" color="yellow"/>
    </vehicle>
    <vehicle id="1.0" depart="0.00">
        <route edges="11_1 1_2 gneE2 3_27" color="yellow"/>
    </vehicle>
    <vehicle id="10.0" depart="0.00">
        <route edges="25_5 5_15" color="yellow"/>
    </vehicle>
    <vehicle id="11.0" depart="0.00">
        <route edges="16_6 6_5 5_4 4_3 3_13" color="yellow"/>
    </vehicle>
    <vehicle id="12.0" depart="0.00">
        <route edges="24_6 6_16" color="yellow"/>
    </vehicle>
    <vehicle id="13.0" depart="0.00">
        <route edges="17_7 7_23" color="yellow"/>
    </vehicle>
    <vehicle id="14.0" depart="0.00">
        <route edges="23_7 7_17" color="yellow"/>
    </vehicle>
    <vehicle id="15.0" depart="0.00">
        <route edges="18_8 8_22" color="yellow"/>
    </vehicle>
    <vehicle id="16.0" depart="0.00">
        <route edges="22_8 8_18" color="yellow"/>
    </vehicle>
    <vehicle id="17.0" depart="0.00">
        <route edges="19_9 9_8 8_22" color="yellow"/>
    </vehicle>
    <vehicle id="18.0" depart="0.00">
        <route edges="20_9 9_8 8_7 7_17" color="yellow"/>
    </vehicle>
    <vehicle id="19.0" depart="0.00">
        <route edges="21_9 9_19" color="yellow"/>
    </vehicle>
    <vehicle id="2.0" depart="0.00">
        <route edges="29_1 1_11" color="yellow"/>
    </vehicle>
    <vehicle id="3.0" depart="0.00">
        <route edges="12_2 2_28" color="yellow"/>
    </vehicle>
    <vehicle id="4.0" depart="0.00">
        <route edges="28_2 2_1 1_29" color="yellow"/>
    </vehicle>
    <vehicle id="5.0" depart="0.00">
        <route edges="13_3 3_4 4_5 5_6 6_24" color="yellow"/>
    </vehicle>
    <vehicle id="6.0" depart="0.00">
        <route edges="27_3 3_4 4_5 5_15" color="yellow"/>
    </vehicle>
    <vehicle id="7.0" depart="0.00">
        <route edges="14_4 4_3 3_27" color="yellow"/>
    </vehicle>
    <vehicle id="8.0" depart="0.00">
        <route edges="26_4 4_5 5_6 6_7 7_23" color="yellow"/>
    </vehicle>
    <vehicle id="9.0" depart="0.00">
        <route edges="15_5 5_4 4_3 3_27" color="yellow"/>
    </vehicle>
    <vehicle id="18.1" depart="3.01">
        <route edges="20_9 9_8 8_18" color="yellow"/>
    </vehicle>
    <vehicle id="10.1" depart="3.33">
        <route edges="25_5 5_6 6_7 7_23" color="yellow"/>
    </vehicle>
    <vehicle id="9.1" depart="4.56">
        <route edges="15_5 5_6 6_24" color="yellow"/>
    </vehicle>
    <vehicle id="19.1" depart="5.06">
        <route edges="21_9 9_19" color="yellow"/>
    </vehicle>
    <vehicle id="14.1" depart="5.24">
        <route edges="23_7 7_17" color="yellow"/>
    </vehicle>
    <vehicle id="13.1" depart="5.61">
        <route edges="17_7 7_23" color="yellow"/>
    </vehicle>
    <vehicle id="18.2" depart="6.02">
        <route edges="20_9 9_8 8_22" color="yellow"/>
    </vehicle>
    <vehicle id="12.1" depart="6.10">
        <route edges="24_6 6_5 5_4 4_3 3_2 2_12" color="yellow"/>
    </vehicle>
    <vehicle id="10.2" depart="6.65">
        <route edges="25_5 5_4 4_14" color="yellow"/>
    </vehicle>
    <vehicle id="4.1" depart="7.09">
        <route edges="28_2 2_12" color="yellow"/>
    </vehicle>
    <vehicle id="3.1" depart="7.21">
        <route edges="12_2 2_1 1_11" color="yellow"/>
    </vehicle>
    <vehicle id="0.1" depart="7.45">
        <route edges="10_1 1_2 gneE2 3_13" color="yellow"/>
    </vehicle>
    <vehicle id="17.1" depart="7.52">
        <route edges="19_9 9_8 8_18" color="yellow"/>
    </vehicle>
    <vehicle id="18.3" depart="9.02">
        <route edges="20_9 9_21" color="yellow"/>
    </vehicle>
    <vehicle id="9.2" depart="9.13">
        <route edges="15_5 5_25" color="yellow"/>
    </vehicle>
    <vehicle id="10.3" depart="9.98">
        <route edges="25_5 5_15" color="yellow"/>
    </vehicle>
    <vehicle id="19.2" depart="10.11">
        <route edges="21_9 9_20" color="yellow"/>
    </vehicle>
    <vehicle id="6.1" depart="10.23">
        <route edges="27_3 3_13" color="yellow"/>
    </vehicle>
    <vehicle id="5.1" depart="10.26">
        <route edges="13_3 3_2 2_12" color="yellow"/>
    </vehicle>
    <vehicle id="14.2" depart="10.48">
        <route edges="23_7 7_8 8_22" color="yellow"/>
    </vehicle>
    <vehicle id="13.2" depart="11.21">
        <route edges="17_7 7_23" color="yellow"/>
    </vehicle>
    <vehicle id="18.4" depart="12.03">
        <route edges="20_9 9_8 8_7 7_17" color="yellow"/>
    </vehicle>
    <vehicle id="2.1" depart="12.12">
        <route edges="29_1 1_11" color="yellow"/>
    </vehicle>
    <vehicle id="12.2" depart="12.20">
        <route edges="24_6 6_16" color="yellow"/>
    </vehicle>
    <vehicle id="7.1" depart="13.28">
        <route edges="14_4 4_26" color="yellow"/>
    </vehicle>
    <vehicle id="10.4" depart="13.31">
        <route edges="25_5 5_15" color="yellow"/>
    </vehicle>
    <vehicle id="9.3" depart="13.69">
        <route edges="15_5 5_25" color="yellow"/>
    </vehicle>
    <vehicle id="4.2" depart="14.17">
        <route edges="28_2 2_1 1_10" color="yellow"/>
    </vehicle>
    <vehicle id="3.2" depart="14.43">
        <route edges="12_2 2_28" color="yellow"/>
    </vehicle>
    <vehicle id="0.2" depart="14.91">
        <route edges="10_1 1_2 2_12" color="yellow"/>
    </vehicle>
    <vehicle id="17.2" depart="15.03">
        <route edges="19_9 9_8 8_7 7_17" color="yellow"/>
    </vehicle>
    <vehicle id="18.5" depart="15.04">
        <route edges="20_9 9_21" color="yellow"/>
    </vehicle>
    <vehicle id="19.3" depart="15.17">
        <route edges="21_9 9_19" color="yellow"/>
    </vehicle>
    <vehicle id="11.1" depart="15.65">
        <route edges="16_6 6_7 7_8 8_9 9_20" color="yellow"/>
    </vehicle>
    <vehicle id="14.3" depart="15.72">
        <route edges="23_7 7_17" color="yellow"/>
    </vehicle>
    <vehicle id="10.5" depart="16.64">
        <route edges="25_5 5_4 4_3 3_27" color="yellow"/>
    </vehicle>
    <vehicle id="13.3" depart="16.82">
        <route edges="17_7 7_23" color="yellow"/>
    </vehicle>
    <vehicle id="18.6" depart="18.05">
        <route edges="20_9 9_8 8_7 7_6 6_16" color="yellow"/>
    </vehicle>
    <vehicle id="9.4" depart="18.25">
        <route edges="15_5 5_25" color="yellow"/>
    </vehicle>
    <vehicle id="12.3" depart="18.31">
        <route edges="24_6 6_16" color="yellow"/>
    </vehicle>
    <vehicle id="10.6" depart="19.96">
        <route edges="25_5 5_4 4_3 3_2 2_12" color="yellow"/>
    </vehicle>
    <vehicle id="19.4" depart="20.22">
        <route edges="21_9 9_19" color="yellow"/>
    </vehicle>
    <vehicle id="1.1" depart="20.23">
        <route edges="11_1 1_10" color="yellow"/>
    </vehicle>
    <vehicle id="6.2" depart="20.45">
        <route edges="27_3 3_2 2_1 1_10" color="yellow"/>
    </vehicle>
    <vehicle id="5.2" depart="20.51">
        <route edges="13_3 3_2 2_1 1_10" color="yellow"/>
    </vehicle>
    <vehicle id="14.4" depart="20.96">
        <route edges="23_7 7_6 6_24" color="yellow"/>
    </vehicle>
    <vehicle id="18.7" depart="21.06">
        <route edges="20_9 9_19" color="yellow"/>
    </vehicle>
    <vehicle id="4.3" depart="21.26">
        <route edges="28_2 2_1 1_10" color="yellow"/>
    </vehicle>
    <vehicle id="3.3" depart="21.64">
        <route edges="12_2 2_28" color="yellow"/>
    </vehicle>
    <vehicle id="8.1" depart="22.09">
        <route edges="26_4 4_14" color="yellow"/>
    </vehicle>
    <vehicle id="0.3" depart="22.36">
        <route edges="10_1 1_2 gneE2 3_4 4_5 5_6 6_7 7_23" color="yellow"/>
    </vehicle>
    <vehicle id="13.4" depart="22.43">
        <route edges="17_7 7_8 8_9 9_19" color="yellow"/>
    </vehicle>
    <vehicle id="17.3" depart="22.55">
        <route edges="19_9 9_20" color="yellow"/>
    </vehicle>
    <vehicle id="9.5" depart="22.82">
        <route edges="15_5 5_25" color="yellow"/>
    </vehicle>
    <vehicle id="10.7" depart="23.29">
        <route edges="25_5 5_6 6_16" color="yellow"/>
    </vehicle>
    <vehicle id="15.1" depart="23.84">
        <route edges="18_8 8_9 9_20" color="yellow"/>
    </vehicle>
    <vehicle id="18.8" depart="24.06">
        <route edges="20_9 9_21" color="yellow"/>
    </vehicle>
    <vehicle id="2.2" depart="24.24">
        <route edges="29_1 1_2 gneE2 3_13" color="yellow"/>
    </vehicle>
    <vehicle id="12.4" depart="24.41">
        <route edges="24_6 6_16" color="yellow"/>
    </vehicle>
    <vehicle id="19.5" depart="25.28">
        <route edges="21_9 9_19" color="yellow"/>
    </vehicle>
    <vehicle id="14.5" depart="26.20">
        <route edges="23_7 7_8 8_9 9_19" color="yellow"/>
    </vehicle>
    <vehicle id="7.2" depart="26.57">
        <route edges="14_4 4_3 3_2 2_28" color="yellow"/>
    </vehicle>
    <vehicle id="10.8" depart="26.62">
        <route edges="25_5 5_15" color="yellow"/>
    </vehicle>
    <vehicle id="18.9" depart="27.07">
        <route edges="20_9 9_19" color="yellow"/>
    </vehicle>
    <vehicle id="9.6" depart="27.38">
        <route edges="15_5 5_6 6_16" color="yellow"/>
    </vehicle>
    <vehicle id="13.5" depart="28.04">
        <route edges="17_7 7_23" color="yellow"/>
    </vehicle>
    <vehicle id="4.4" depart="28.35">
        <route edges="28_2 2_1 1_10" color="yellow"/>
    </vehicle>
    <vehicle id="3.4" depart="28.86">
        <route edges="12_2 gneE2 3_13" color="yellow"/>
    </vehicle>
    <vehicle id="0.4" depart="29.81">
        <route edges="10_1 1_2 2_12" color="yellow"/>
    </vehicle>
    <vehicle id="10.9" depart="29.94">
        <route edges="25_5 5_15" color="yellow"/>
    </vehicle>
    <vehicle id="17.4" depart="30.06">
        <route edges="19_9 9_8 8_18" color="yellow"/>
    </vehicle>
    <vehicle id="18.10" depart="30.08">
        <route edges="20_9 9_8 8_7 7_6 6_5 5_4 4_26" color="yellow"/>
    </vehicle>
    <vehicle id="19.6" depart="30.34">
        <route edges="21_9 9_20" color="yellow"/>
    </vehicle>
    <vehicle id="12.5" depart="30.51">
        <route edges="24_6 6_16" color="yellow"/>
    </vehicle>
    <vehicle id="6.3" depart="30.68">
        <route edges="27_3 3_4 4_14" color="yellow"/>
    </vehicle>
    <vehicle id="16.1" depart="30.77">
        <route edges="22_8 8_9 9_21" color="yellow"/>
    </vehicle>
    <vehicle id="5.3" depart="30.77">
        <route edges="13_3 3_2 2_12" color="yellow"/>
    </vehicle>
    <vehicle id="11.2" depart="31.30">
        <route edges="16_6 6_5 5_25" color="yellow"/>
    </vehicle>
    <vehicle id="14.6" depart="31.44">
        <route edges="23_7 7_17" color="yellow"/>
    </vehicle>
    <vehicle id="9.7" depart="31.94">
        <route edges="15_5 5_25" color="yellow"/>
    </vehicle>
    <vehicle id="18.11" depart="33.09">
        <route edges="20_9 9_21" color="yellow"/>
    </vehicle>
    <vehicle id="10.10" depart="33.27">
        <route edges="25_5 5_15" color="yellow"/>
    </vehicle>
    <vehicle id="13.6" depart="33.64">
        <route edges="17_7 7_6 6_16" color="yellow"/>
    </vehicle>
    <vehicle id="19.7" depart="35.39">
        <route edges="21_9 9_8 8_18" color="yellow"/>
    </vehicle>
    <vehicle id="4.5" depart="35.44">
        <route edges="28_2 2_1 1_10" color="yellow"/>
    </vehicle>
    <vehicle id="3.5" depart="36.07">
        <route edges="12_2 gneE2 3_4 4_26" color="yellow"/>
    </vehicle>
    <vehicle id="18.12" depart="36.10">
        <route edges="20_9 9_8 8_18" color="yellow"/>
    </vehicle>
    <vehicle id="2.3" depart="36.36">
        <route edges="29_1 1_11" color="yellow"/>
    </vehicle>
    <vehicle id="9.8" depart="36.50">
        <route edges="15_5 5_25" color="yellow"/>
    </vehicle>
    <vehicle id="10.11" depart="36.60">
        <route edges="25_5 5_15" color="yellow"/>
    </vehicle>
    <vehicle id="12.6" depart="36.61">
        <route edges="24_6 6_7 7_8 8_22" color="yellow"/>
    </vehicle>
    <vehicle id="14.7" depart="36.68">
        <route edges="23_7 7_17" color="yellow"/>
    </vehicle>
    <vehicle id="0.5" depart="37.27">
        <route edges="10_1 1_2 gneE2 3_13" color="yellow"/>
    </vehicle>
    <vehicle id="17.5" depart="37.58">
        <route edges="19_9 9_21" color="yellow"/>
    </vehicle>
    <vehicle id="18.13" depart="39.10">
        <route edges="20_9 9_8 8_18" color="yellow"/>
    </vehicle>
    <vehicle id="13.7" depart="39.25">
        <route edges="17_7 7_8 8_9 9_21" color="yellow"/>
    </vehicle>
    <vehicle id="7.3" depart="39.85">
        <route edges="14_4 4_26" color="yellow"/>
    </vehicle>
    <vehicle id="10.12" depart="39.92">
        <route edges="25_5 5_6 6_7 7_23" color="yellow"/>
    </vehicle>
    <vehicle id="1.2" depart="40.45">
        <route edges="11_1 1_29" color="yellow"/>
    </vehicle>
    <vehicle id="19.8" depart="40.45">
        <route edges="21_9 9_19" color="yellow"/>
    </vehicle>
    <vehicle id="6.4" depart="40.91">
        <route edges="27_3 3_2 2_12" color="yellow"/>
    </vehicle>
    <vehicle id="5.4" depart="41.02">
        <route edges="13_3 3_4 4_26" color="yellow"/>
    </vehicle>
    <vehicle id="9.9" depart="41.07">
        <route edges="15_5 5_4 4_3 3_2 2_1 1_10" color="yellow"/>
    </vehicle>
    <vehicle id="14.8" depart="41.92">
        <route edges="23_7 7_6 6_24" color="yellow"/>
    </vehicle>
    <vehicle id="18.14" depart="42.11">
        <route edges="20_9 9_8 8_22" color="yellow"/>
    </vehicle>
    <vehicle id="4.6" depart="42.52">
        <route edges="28_2 2_12" color="yellow"/>
    </vehicle>
    <vehicle id="12.7" depart="42.71">
        <route edges="24_6 6_7 7_23" color="yellow"/>
    </vehicle>
    <vehicle id="10.13" depart="43.25">
        <route edges="25_5 5_15" color="yellow"/>
    </vehicle>
    <vehicle id="3.6" depart="43.28">
        <route edges="12_2 2_1 1_11" color="yellow"/>
    </vehicle>
    <vehicle id="8.2" depart="44.17">
        <route edges="26_4 4_5 5_15" color="yellow"/>
    </vehicle>
    <vehicle id="0.6" depart="44.72">
        <route edges="10_1 1_2 gneE2 3_4 4_26" color="yellow"/>
    </vehicle>
    <vehicle id="13.8" depart="44.86">
        <route edges="17_7 7_8 8_9 9_20" color="yellow"/>
    </vehicle>
    <vehicle id="17.6" depart="45.10">
        <route edges="19_9 9_21" color="yellow"/>
    </vehicle>
    <vehicle id="18.15" depart="45.12">
        <route edges="20_9 9_8 8_7 7_23" color="yellow"/>
    </vehicle>
    <vehicle id="19.9" depart="45.50">
        <route edges="21_9 9_19" color="yellow"/>
    </vehicle>
    <vehicle id="9.10" depart="45.63">
        <route edges="15_5 5_25" color="yellow"/>
    </vehicle>
    <vehicle id="10.14" depart="46.58">
        <route edges="25_5 5_15" color="yellow"/>
    </vehicle>
    <vehicle id="11.3" depart="46.96">
        <route edges="16_6 6_7 7_8 8_22" color="yellow"/>
    </vehicle>
    <vehicle id="14.9" depart="47.16">
        <route edges="23_7 7_8 8_9 9_20" color="yellow"/>
    </vehicle>
    <vehicle id="15.2" depart="47.68">
        <route edges="18_8 8_7 7_23" color="yellow"/>
    </vehicle>
    <vehicle id="18.16" depart="48.13">
        <route edges="20_9 9_21" color="yellow"/>
    </vehicle>
    <vehicle id="2.4" depart="48.48">
        <route edges="29_1 1_11" color="yellow"/>
    </vehicle>
    <vehicle id="12.8" depart="48.82">
        <route edges="24_6 6_7 7_17" color="yellow"/>
    </vehicle>
    <vehicle id="4.7" depart="49.61">
        <route edges="28_2 2_12" color="yellow"/>
    </vehicle>
    <vehicle id="10.15" depart="49.91">
        <route edges="25_5 5_6 6_7 7_17" color="yellow"/>
    </vehicle>
    <vehicle id="9.11" depart="50.19">
        <route edges="15_5 5_6 6_7 7_17" color="yellow"/>
    </vehicle>
    <vehicle id="13.9" depart="50.46">
        <route edges="17_7 7_6 6_5 5_4 4_3 3_13" color="yellow"/>
    </vehicle>
    <vehicle id="3.7" depart="50.50">
        <route edges="12_2 2_28" color="yellow"/>
    </vehicle>
    <vehicle id="19.10" depart="50.56">
        <route edges="21_9 9_8 8_7 7_23" color="yellow"/>
    </vehicle>
    <vehicle id="18.17" depart="51.14">
        <route edges="20_9 9_8 8_7 7_6 6_24" color="yellow"/>
    </vehicle>
    <vehicle id="6.5" depart="51.14">
        <route edges="27_3 3_4 4_14" color="yellow"/>
    </vehicle>
    <vehicle id="5.5" depart="51.28">
        <route edges="13_3 3_4 4_5 5_6 6_7 7_17" color="yellow"/>
    </vehicle>
    <vehicle id="0.7" depart="52.17">
        <route edges="10_1 1_2 2_12" color="yellow"/>
    </vehicle>
    <vehicle id="14.10" depart="52.40">
        <route edges="23_7 7_17" color="yellow"/>
    </vehicle>
    <vehicle id="17.7" depart="52.61">
        <route edges="19_9 9_8 8_7 7_23" color="yellow"/>
    </vehicle>
    <vehicle id="7.4" depart="53.14">
        <route edges="14_4 4_5 5_6 6_24" color="yellow"/>
    </vehicle>
    <vehicle id="10.16" depart="53.23">
        <route edges="25_5 5_4 4_3 3_13" color="yellow"/>
    </vehicle>
    <vehicle id="18.18" depart="54.14">
        <route edges="20_9 9_21" color="yellow"/>
    </vehicle>
    <vehicle id="9.12" depart="54.76">
        <route edges="15_5 5_6 6_24" color="yellow"/>
    </vehicle>
    <vehicle id="12.9" depart="54.92">
        <route edges="24_6 6_7 7_23" color="yellow"/>
    </vehicle>
    <vehicle id="19.11" depart="55.62">
        <route edges="21_9 9_20" color="yellow"/>
    </vehicle>
    <vehicle id="13.10" depart="56.07">
        <route edges="17_7 7_6 6_5 5_4 4_3 3_27" color="yellow"/>
    </vehicle>
    <vehicle id="10.17" depart="56.56">
        <route edges="25_5 5_6 6_16" color="yellow"/>
    </vehicle>
    <vehicle id="4.8" depart="56.70">
        <route edges="28_2 2_1 1_10" color="yellow"/>
    </vehicle>
    <vehicle id="18.19" depart="57.15">
        <route edges="20_9 9_8 8_7 7_6 6_24" color="yellow"/>
    </vehicle>
    <vehicle id="14.11" depart="57.64">
        <route edges="23_7 7_8 8_9 9_20" color="yellow"/>
    </vehicle>
    <vehicle id="3.8" depart="57.71">
        <route edges="12_2 2_1 1_11" color="yellow"/>
    </vehicle>
    <vehicle id="9.13" depart="59.32">
        <route edges="15_5 5_4 4_14" color="yellow"/>
    </vehicle>
    <vehicle id="0.8" depart="59.62">
        <route edges="10_1 1_2 gneE2 3_13" color="yellow"/>
    </vehicle>
    <vehicle id="10.18" depart="59.89">
        <route edges="25_5 5_4 4_14" color="yellow"/>
    </vehicle>
    <vehicle id="17.8" depart="60.13">
        <route edges="19_9 9_20" color="yellow"/>
    </vehicle>
    <vehicle id="18.20" depart="60.16">
        <route edges="20_9 9_8 8_18" color="yellow"/>
    </vehicle>
    <vehicle id="2.5" depart="60.61">
        <route edges="29_1 1_11" color="yellow"/>
    </vehicle>
    <vehicle id="19.12" depart="60.67">
        <route edges="21_9 9_19" color="yellow"/>
    </vehicle>
    <vehicle id="1.3" depart="60.68">
        <route edges="11_1 1_29" color="yellow"/>
    </vehicle>
    <vehicle id="12.10" depart="61.02">
        <route edges="24_6 6_16" color="yellow"/>
    </vehicle>
    <vehicle id="6.6" depart="61.36">
        <route edges="27_3 3_13" color="yellow"/>
    </vehicle>
    <vehicle id="16.2" depart="61.54">
        <route edges="22_8 8_7 7_23" color="yellow"/>
    </vehicle>
    <vehicle id="5.6" depart="61.54">
        <route edges="13_3 3_2 2_12" color="yellow"/>
    </vehicle>
    <vehicle id="13.11" depart="61.68">
        <route edges="17_7 7_23" color="yellow"/>
    </vehicle>
    <vehicle id="11.4" depart="62.61">
        <route edges="16_6 6_7 7_17" color="yellow"/>
    </vehicle>
    <vehicle id="14.12" depart="62.88">
        <route edges="23_7 7_17" color="yellow"/>
    </vehicle>
    <vehicle id="18.21" depart="63.17">
        <route edges="20_9 9_8 8_7 7_17" color="yellow"/>
    </vehicle>
    <vehicle id="10.19" depart="63.21">
        <route edges="25_5 5_15" color="yellow"/>
    </vehicle>
    <vehicle id="4.9" depart="63.78">
        <route edges="28_2 2_1 1_10" color="yellow"/>
    </vehicle>
    <vehicle id="9.14" depart="63.88">
        <route edges="15_5 5_25" color="yellow"/>
    </vehicle>
    <vehicle id="3.9" depart="64.93">
        <route edges="12_2 gneE2 3_27" color="yellow"/>
    </vehicle>
    <vehicle id="19.13" depart="65.73">
        <route edges="21_9 9_19" color="yellow"/>
    </vehicle>
    <vehicle id="18.22" depart="66.18">
        <route edges="20_9 9_19" color="yellow"/>
    </vehicle>
    <vehicle id="8.3" depart="66.26">
        <route edges="26_4 4_5 5_15" color="yellow"/>
    </vehicle>
    <vehicle id="7.5" depart="66.42">
        <route edges="14_4 4_5 5_25" color="yellow"/>
    </vehicle>
    <vehicle id="10.20" depart="66.54">
        <route edges="25_5 5_6 6_24" color="yellow"/>
    </vehicle>
    <vehicle id="0.9" depart="67.08">
        <route edges="10_1 1_29" color="yellow"/>
    </vehicle>
    <vehicle id="12.11" depart="67.12">
        <route edges="24_6 6_5 5_4 4_3 3_27" color="yellow"/>
    </vehicle>
    <vehicle id="13.12" depart="67.28">
        <route edges="17_7 7_23" color="yellow"/>
    </vehicle>
    <vehicle id="17.9" depart="67.64">
        <route edges="19_9 9_8 8_22" color="yellow"/>
    </vehicle>
    <vehicle id="14.13" depart="68.12">
        <route edges="23_7 7_6 6_5 5_4 4_3 3_2 2_1 1_11" color="yellow"/>
    </vehicle>
    <vehicle id="9.15" depart="68.45">
        <route edges="15_5 5_25" color="yellow"/>
    </vehicle>
    <vehicle id="18.23" depart="69.18">
        <route edges="20_9 9_8 8_22" color="yellow"/>
    </vehicle>
    <vehicle id="10.21" depart="69.87">
        <route edges="25_5 5_6 6_7 7_23" color="yellow"/>
    </vehicle>
    <vehicle id="19.14" depart="70.78">
        <route edges="21_9 9_8 8_22" color="yellow"/>
    </vehicle>
    <vehicle id="4.10" depart="70.87">
        <route edges="28_2 gneE2 3_4 4_26" color="yellow"/>
    </vehicle>
    <vehicle id="15.3" depart="71.52">
        <route edges="18_8 8_7 7_6 6_24" color="yellow"/>
    </vehicle>
    <vehicle id="6.7" depart="71.59">
        <route edges="27_3 3_4 4_14" color="yellow"/>
    </vehicle>
    <vehicle id="5.7" depart="71.79">
        <route edges="13_3 3_27" color="yellow"/>
    </vehicle>
    <vehicle id="3.10" depart="72.14">
        <route edges="12_2 2_1 1_11" color="yellow"/>
    </vehicle>
    <vehicle id="18.24" depart="72.19">
        <route edges="20_9 9_21" color="yellow"/>
    </vehicle>
    <vehicle id="2.6" depart="72.73">
        <route edges="29_1 1_10" color="yellow"/>
    </vehicle>
    <vehicle id="13.13" depart="72.89">
        <route edges="17_7 7_8 8_9 9_20" color="yellow"/>
    </vehicle>
    <vehicle id="9.16" depart="73.01">
        <route edges="15_5 5_25" color="yellow"/>
    </vehicle>
    <vehicle id="10.22" depart="73.19">
        <route edges="25_5 5_4 4_26" color="yellow"/>
    </vehicle>
    <vehicle id="12.12" depart="73.22">
        <route edges="24_6 6_16" color="yellow"/>
    </vehicle>
    <vehicle id="14.14" depart="73.36">
        <route edges="23_7 7_17" color="yellow"/>
    </vehicle>
    <vehicle id="0.10" depart="74.53">
        <route edges="10_1 1_29" color="yellow"/>
    </vehicle>
    <vehicle id="17.10" depart="75.16">
        <route edges="19_9 9_21" color="yellow"/>
    </vehicle>
    <vehicle id="18.25" depart="75.20">
        <route edges="20_9 9_21" color="yellow"/>
    </vehicle>
    <vehicle id="19.15" depart="75.84">
        <route edges="21_9 9_20" color="yellow"/>
    </vehicle>
    <vehicle id="10.23" depart="76.52">
        <route edges="25_5 5_6 6_7 7_17" color="yellow"/>
    </vehicle>
    <vehicle id="9.17" depart="77.57">
        <route edges="15_5 5_25" color="yellow"/>
    </vehicle>
    <vehicle id="4.11" depart="77.96">
        <route edges="28_2 2_1 1_11" color="yellow"/>
    </vehicle>
    <vehicle id="18.26" depart="78.21">
        <route edges="20_9 9_19" color="yellow"/>
    </vehicle>
    <vehicle id="11.5" depart="78.26">
        <route edges="16_6 6_24" color="yellow"/>
    </vehicle>
    <vehicle id="13.14" depart="78.50">
        <route edges="17_7 7_23" color="yellow"/>
    </vehicle>
    <vehicle id="14.15" depart="78.60">
        <route edges="23_7 7_17" color="yellow"/>
    </vehicle>
    <vehicle id="12.13" depart="79.33">
        <route edges="24_6 6_16" color="yellow"/>
    </vehicle>
    <vehicle id="3.11" depart="79.35">
        <route edges="12_2 2_1 1_29" color="yellow"/>
    </vehicle>
    <vehicle id="7.6" depart="79.70">
        <route edges="14_4 4_26" color="yellow"/>
    </vehicle>
    <vehicle id="10.24" depart="79.85">
        <route edges="25_5 5_15" color="yellow"/>
    </vehicle>
    <vehicle id="1.4" depart="80.90">
        <route edges="11_1 1_29" color="yellow"/>
    </vehicle>
    <vehicle id="19.16" depart="80.90">
        <route edges="21_9 9_19" color="yellow"/>
    </vehicle>
    <vehicle id="18.27" depart="81.22">
        <route edges="20_9 9_21" color="yellow"/>
    </vehicle>
    <vehicle id="6.8" depart="81.82">
        <route edges="27_3 3_13" color="yellow"/>
    </vehicle>
    <vehicle id="0.11" depart="81.98">
        <route edges="10_1 1_2 gneE2 3_27" color="yellow"/>
    </vehicle>
    <vehicle id="5.8" depart="82.05">
        <route edges="13_3 3_2 2_28" color="yellow"/>
    </vehicle>
    <vehicle id="9.18" depart="82.13">
        <route edges="15_5 5_25" color="yellow"/>
    </vehicle>
    <vehicle id="17.11" depart="82.68">
        <route edges="19_9 9_21" color="yellow"/>
    </vehicle>
    <vehicle id="10.25" depart="83.18">
        <route edges="25_5 5_15" color="yellow"/>
    </vehicle>
    <vehicle id="14.16" depart="83.84">
        <route edges="23_7 7_6 6_5 5_15" color="yellow"/>
    </vehicle>
    <vehicle id="13.15" depart="84.11">
        <route edges="17_7 7_23" color="yellow"/>
    </vehicle>
    <vehicle id="18.28" depart="84.22">
        <route edges="20_9 9_8 8_7 7_6 6_16" color="yellow"/>
    </vehicle>
    <vehicle id="2.7" depart="84.85">
        <route edges="29_1 1_11" color="yellow"/>
    </vehicle>
    <vehicle id="4.12" depart="85.04">
        <route edges="28_2 2_12" color="yellow"/>
    </vehicle>
    <vehicle id="12.14" depart="85.43">
        <route edges="24_6 6_16" color="yellow"/>
    </vehicle>
    <vehicle id="19.17" depart="85.95">
        <route edges="21_9 9_20" color="yellow"/>
    </vehicle>
    <vehicle id="10.26" depart="86.50">
        <route edges="25_5 5_4 4_26" color="yellow"/>
    </vehicle>
    <vehicle id="3.12" depart="86.57">
        <route edges="12_2 2_1 1_11" color="yellow"/>
    </vehicle>
    <vehicle id="9.19" depart="86.70">
        <route edges="15_5 5_25" color="yellow"/>
    </vehicle>
    <vehicle id="18.29" depart="87.23">
        <route edges="20_9 9_21" color="yellow"/>
    </vehicle>
    <vehicle id="8.4" depart="88.34">
        <route edges="26_4 4_3 3_27" color="yellow"/>
    </vehicle>
    <vehicle id="14.17" depart="89.08">
        <route edges="23_7 7_17" color="yellow"/>
    </vehicle>
    <vehicle id="0.12" depart="89.44">
        <route edges="10_1 1_29" color="yellow"/>
    </vehicle>
    <vehicle id="13.16" depart="89.71">
        <route edges="17_7 7_6 6_5 5_25" color="yellow"/>
    </vehicle>
    <vehicle id="10.27" depart="89.83">
        <route edges="25_5 5_4 4_26" color="yellow"/>
    </vehicle>
    <vehicle id="17.12" depart="90.19">
        <route edges="19_9 9_21" color="yellow"/>
    </vehicle>
    <vehicle id="18.30" depart="90.24">
        <route edges="20_9 9_8 8_22" color="yellow"/>
    </vehicle>
    <vehicle id="19.18" depart="91.01">
        <route edges="21_9 9_20" color="yellow"/>
    </vehicle>
    <vehicle id="9.20" depart="91.26">
        <route edges="15_5 5_25" color="yellow"/>
    </vehicle>
    <vehicle id="12.15" depart="91.53">
        <route edges="24_6 6_7 7_17" color="yellow"/>
    </vehicle>
    <vehicle id="6.9" depart="92.04">
        <route edges="27_3 3_4 4_14" color="yellow"/>
    </vehicle>
    <vehicle id="4.13" depart="92.13">
        <route edges="28_2 2_12" color="yellow"/>
    </vehicle>
    <vehicle id="5.9" depart="92.30">
        <route edges="13_3 3_4 4_26" color="yellow"/>
    </vehicle>
    <vehicle id="16.3" depart="92.31">
        <route edges="22_8 8_18" color="yellow"/>
    </vehicle>
    <vehicle id="7.7" depart="92.99">
        <route edges="14_4 4_26" color="yellow"/>
    </vehicle>
    <vehicle id="10.28" depart="93.16">
        <route edges="25_5 5_15" color="yellow"/>
    </vehicle>
    <vehicle id="18.31" depart="93.25">
        <route edges="20_9 9_21" color="yellow"/>
    </vehicle>
    <vehicle id="3.13" depart="93.78">
        <route edges="12_2 2_1 1_11" color="yellow"/>
    </vehicle>
    <vehicle id="11.6" depart="93.91">